<?xml version="1.0" encoding="UTF-8"?>
<configuration>
    <input>
        <net-file value="intersection.net.xml"/>
        <route-files value="routes.rou.xml"/>
    </input>
    <time>
        <begin value="0"/>
        <end value="3600"/>
    </time>
    <time-to-teleport value="-1"/>
    <gui_only>
        <gui-settings-file value="gui-settings.cfg"/>
    </gui_only>
</configuration>
